powerfulcases/cases/matpower/case85/case85.raw
0, 1, 33, 0, 0, 60  / 28-Jan-2026 21:53:27 - MATPOWER 8.1


     1, 'BUS 1       ',        11, 3,    1,    1, 1,           1,           0,    1,    1,    1,    1
     2, 'BUS 2       ',        11, 1,    1,    1, 1,           1,           0,  1.1,  0.9,  1.1,  0.9
     3, 'BUS 3       ',        11, 1,    1,    1, 1,           1,           0,  1.1,  0.9,  1.1,  0.9
     4, 'BUS 4       ',        11, 1,    1,    1, 1,           1,           0,  1.1,  0.9,  1.1,  0.9
     5, 'BUS 5       ',        11, 1,    1,    1, 1,           1,           0,  1.1,  0.9,  1.1,  0.9
     6, 'BUS 6       ',        11, 1,    1,    1, 1,           1,           0,  1.1,  0.9,  1.1,  0.9
     7, 'BUS 7       ',        11, 1,    1,    1, 1,           1,           0,  1.1,  0.9,  1.1,  0.9
     8, 'BUS 8       ',        11, 1,    1,    1, 1,           1,           0,  1.1,  0.9,  1.1,  0.9
     9, 'BUS 9       ',        11, 1,    1,    1, 1,           1,           0,  1.1,  0.9,  1.1,  0.9
    10, 'BUS 10      ',        11, 1,    1,    1, 1,           1,           0,  1.1,  0.9,  1.1,  0.9
    11, 'BUS 11      ',        11, 1,    1,    1, 1,           1,           0,  1.1,  0.9,  1.1,  0.9
    12, 'BUS 12      ',        11, 1,    1,    1, 1,           1,           0,  1.1,  0.9,  1.1,  0.9
    13, 'BUS 13      ',        11, 1,    1,    1, 1,           1,           0,  1.1,  0.9,  1.1,  0.9
    14, 'BUS 14      ',        11, 1,    1,    1, 1,           1,           0,  1.1,  0.9,  1.1,  0.9
    15, 'BUS 15      ',        11, 1,    1,    1, 1,           1,           0,  1.1,  0.9,  1.1,  0.9
    16, 'BUS 16      ',        11, 1,    1,    1, 1,           1,           0,  1.1,  0.9,  1.1,  0.9
    17, 'BUS 17      ',        11, 1,    1,    1, 1,           1,           0,  1.1,  0.9,  1.1,  0.9
    18, 'BUS 18      ',        11, 1,    1,    1, 1,           1,           0,  1.1,  0.9,  1.1,  0.9
    19, 'BUS 19      ',        11, 1,    1,    1, 1,           1,           0,  1.1,  0.9,  1.1,  0.9
    20, 'BUS 20      ',        11, 1,    1,    1, 1,           1,           0,  1.1,  0.9,  1.1,  0.9
    21, 'BUS 21      ',        11, 1,    1,    1, 1,           1,           0,  1.1,  0.9,  1.1,  0.9
    22, 'BUS 22      ',        11, 1,    1,    1, 1,           1,           0,  1.1,  0.9,  1.1,  0.9
    23, 'BUS 23      ',        11, 1,    1,    1, 1,           1,           0,  1.1,  0.9,  1.1,  0.9
    24, 'BUS 24      ',        11, 1,    1,    1, 1,           1,           0,  1.1,  0.9,  1.1,  0.9
    25, 'BUS 25      ',        11, 1,    1,    1, 1,           1,           0,  1.1,  0.9,  1.1,  0.9
    26, 'BUS 26      ',        11, 1,    1,    1, 1,           1,           0,  1.1,  0.9,  1.1,  0.9
    27, 'BUS 27      ',        11, 1,    1,    1, 1,           1,           0,  1.1,  0.9,  1.1,  0.9
    28, 'BUS 28      ',        11, 1,    1,    1, 1,           1,           0,  1.1,  0.9,  1.1,  0.9
    29, 'BUS 29      ',        11, 1,    1,    1, 1,           1,           0,  1.1,  0.9,  1.1,  0.9
    30, 'BUS 30      ',        11, 1,    1,    1, 1,           1,           0,  1.1,  0.9,  1.1,  0.9
    31, 'BUS 31      ',        11, 1,    1,    1, 1,           1,           0,  1.1,  0.9,  1.1,  0.9
    32, 'BUS 32      ',        11, 1,    1,    1, 1,           1,           0,  1.1,  0.9,  1.1,  0.9
    33, 'BUS 33      ',        11, 1,    1,    1, 1,           1,           0,  1.1,  0.9,  1.1,  0.9
    34, 'BUS 34      ',        11, 1,    1,    1, 1,           1,           0,  1.1,  0.9,  1.1,  0.9
    35, 'BUS 35      ',        11, 1,    1,    1, 1,           1,           0,  1.1,  0.9,  1.1,  0.9
    36, 'BUS 36      ',        11, 1,    1,    1, 1,           1,           0,  1.1,  0.9,  1.1,  0.9
    37, 'BUS 37      ',        11, 1,    1,    1, 1,           1,           0,  1.1,  0.9,  1.1,  0.9
    38, 'BUS 38      ',        11, 1,    1,    1, 1,           1,           0,  1.1,  0.9,  1.1,  0.9
    39, 'BUS 39      ',        11, 1,    1,    1, 1,           1,           0,  1.1,  0.9,  1.1,  0.9
    40, 'BUS 40      ',        11, 1,    1,    1, 1,           1,           0,  1.1,  0.9,  1.1,  0.9
    41, 'BUS 41      ',        11, 1,    1,    1, 1,           1,           0,  1.1,  0.9,  1.1,  0.9
    42, 'BUS 42      ',        11, 1,    1,    1, 1,           1,           0,  1.1,  0.9,  1.1,  0.9
    43, 'BUS 43      ',        11, 1,    1,    1, 1,           1,           0,  1.1,  0.9,  1.1,  0.9
    44, 'BUS 44      ',        11, 1,    1,    1, 1,           1,           0,  1.1,  0.9,  1.1,  0.9
    45, 'BUS 45      ',        11, 1,    1,    1, 1,           1,           0,  1.1,  0.9,  1.1,  0.9
    46, 'BUS 46      ',        11, 1,    1,    1, 1,           1,           0,  1.1,  0.9,  1.1,  0.9
    47, 'BUS 47      ',        11, 1,    1,    1, 1,           1,           0,  1.1,  0.9,  1.1,  0.9
    48, 'BUS 48      ',        11, 1,    1,    1, 1,           1,           0,  1.1,  0.9,  1.1,  0.9
    49, 'BUS 49      ',        11, 1,    1,    1, 1,           1,           0,  1.1,  0.9,  1.1,  0.9
    50, 'BUS 50      ',        11, 1,    1,    1, 1,           1,           0,  1.1,  0.9,  1.1,  0.9
    51, 'BUS 51      ',        11, 1,    1,    1, 1,           1,           0,  1.1,  0.9,  1.1,  0.9
    52, 'BUS 52      ',        11, 1,    1,    1, 1,           1,           0,  1.1,  0.9,  1.1,  0.9
    53, 'BUS 53      ',        11, 1,    1,    1, 1,           1,           0,  1.1,  0.9,  1.1,  0.9
    54, 'BUS 54      ',        11, 1,    1,    1, 1,           1,           0,  1.1,  0.9,  1.1,  0.9
    55, 'BUS 55      ',        11, 1,    1,    1, 1,           1,           0,  1.1,  0.9,  1.1,  0.9
    56, 'BUS 56      ',        11, 1,    1,    1, 1,           1,           0,  1.1,  0.9,  1.1,  0.9
    57, 'BUS 57      ',        11, 1,    1,    1, 1,           1,           0,  1.1,  0.9,  1.1,  0.9
    58, 'BUS 58      ',        11, 1,    1,    1, 1,           1,           0,  1.1,  0.9,  1.1,  0.9
    59, 'BUS 59      ',        11, 1,    1,    1, 1,           1,           0,  1.1,  0.9,  1.1,  0.9
    60, 'BUS 60      ',        11, 1,    1,    1, 1,           1,           0,  1.1,  0.9,  1.1,  0.9
    61, 'BUS 61      ',        11, 1,    1,    1, 1,           1,           0,  1.1,  0.9,  1.1,  0.9
    62, 'BUS 62      ',        11, 1,    1,    1, 1,           1,           0,  1.1,  0.9,  1.1,  0.9
    63, 'BUS 63      ',        11, 1,    1,    1, 1,           1,           0,  1.1,  0.9,  1.1,  0.9
    64, 'BUS 64      ',        11, 1,    1,    1, 1,           1,           0,  1.1,  0.9,  1.1,  0.9
    65, 'BUS 65      ',        11, 1,    1,    1, 1,           1,           0,  1.1,  0.9,  1.1,  0.9
    66, 'BUS 66      ',        11, 1,    1,    1, 1,           1,           0,  1.1,  0.9,  1.1,  0.9
    67, 'BUS 67      ',        11, 1,    1,    1, 1,           1,           0,  1.1,  0.9,  1.1,  0.9
    68, 'BUS 68      ',        11, 1,    1,    1, 1,           1,           0,  1.1,  0.9,  1.1,  0.9
    69, 'BUS 69      ',        11, 1,    1,    1, 1,           1,           0,  1.1,  0.9,  1.1,  0.9
    70, 'BUS 70      ',        11, 1,    1,    1, 1,           1,           0,  1.1,  0.9,  1.1,  0.9
    71, 'BUS 71      ',        11, 1,    1,    1, 1,           1,           0,  1.1,  0.9,  1.1,  0.9
    72, 'BUS 72      ',        11, 1,    1,    1, 1,           1,           0,  1.1,  0.9,  1.1,  0.9
    73, 'BUS 73      ',        11, 1,    1,    1, 1,           1,           0,  1.1,  0.9,  1.1,  0.9
    74, 'BUS 74      ',        11, 1,    1,    1, 1,           1,           0,  1.1,  0.9,  1.1,  0.9
    75, 'BUS 75      ',        11, 1,    1,    1, 1,           1,           0,  1.1,  0.9,  1.1,  0.9
    76, 'BUS 76      ',        11, 1,    1,    1, 1,           1,           0,  1.1,  0.9,  1.1,  0.9
    77, 'BUS 77      ',        11, 1,    1,    1, 1,           1,           0,  1.1,  0.9,  1.1,  0.9
    78, 'BUS 78      ',        11, 1,    1,    1, 1,           1,           0,  1.1,  0.9,  1.1,  0.9
    79, 'BUS 79      ',        11, 1,    1,    1, 1,           1,           0,  1.1,  0.9,  1.1,  0.9
    80, 'BUS 80      ',        11, 1,    1,    1, 1,           1,           0,  1.1,  0.9,  1.1,  0.9
    81, 'BUS 81      ',        11, 1,    1,    1, 1,           1,           0,  1.1,  0.9,  1.1,  0.9
    82, 'BUS 82      ',        11, 1,    1,    1, 1,           1,           0,  1.1,  0.9,  1.1,  0.9
    83, 'BUS 83      ',        11, 1,    1,    1, 1,           1,           0,  1.1,  0.9,  1.1,  0.9
    84, 'BUS 84      ',        11, 1,    1,    1, 1,           1,           0,  1.1,  0.9,  1.1,  0.9
    85, 'BUS 85      ',        11, 1,    1,    1, 1,           1,           0,  1.1,  0.9,  1.1,  0.9
0 / END OF BUS DATA, BEGIN LOAD DATA
     4,  1, 1,    1,    1,     0.056, 0.0571314, 0, 0, 0, 0, 1, 1, 0
     6,  1, 1,    1,    1,   0.03528, 0.0359928, 0, 0, 0, 0, 1, 1, 0
     8,  1, 1,    1,    1,   0.03528, 0.0359928, 0, 0, 0, 0, 1, 1, 0
    11,  1, 1,    1,    1,     0.056, 0.0571314, 0, 0, 0, 0, 1, 1, 0
    14,  1, 1,    1,    1,   0.03528, 0.0359928, 0, 0, 0, 0, 1, 1, 0
    15,  1, 1,    1,    1,   0.03528, 0.0359928, 0, 0, 0, 0, 1, 1, 0
    16,  1, 1,    1,    1,   0.03528, 0.0359928, 0, 0, 0, 0, 1, 1, 0
    17,  1, 1,    1,    1,     0.112, 0.1142629, 0, 0, 0, 0, 1, 1, 0
    18,  1, 1,    1,    1,     0.056, 0.0571314, 0, 0, 0, 0, 1, 1, 0
    19,  1, 1,    1,    1,     0.056, 0.0571314, 0, 0, 0, 0, 1, 1, 0
    20,  1, 1,    1,    1,   0.03528, 0.0359928, 0, 0, 0, 0, 1, 1, 0
    21,  1, 1,    1,    1,   0.03528, 0.0359928, 0, 0, 0, 0, 1, 1, 0
    22,  1, 1,    1,    1,   0.03528, 0.0359928, 0, 0, 0, 0, 1, 1, 0
    23,  1, 1,    1,    1,     0.056, 0.0571314, 0, 0, 0, 0, 1, 1, 0
    24,  1, 1,    1,    1,   0.03528, 0.0359928, 0, 0, 0, 0, 1, 1, 0
    25,  1, 1,    1,    1,   0.03528, 0.0359928, 0, 0, 0, 0, 1, 1, 0
    26,  1, 1,    1,    1,     0.056, 0.0571314, 0, 0, 0, 0, 1, 1, 0
    28,  1, 1,    1,    1,     0.056, 0.0571314, 0, 0, 0, 0, 1, 1, 0
    30,  1, 1,    1,    1,   0.03528, 0.0359928, 0, 0, 0, 0, 1, 1, 0
    31,  1, 1,    1,    1,   0.03528, 0.0359928, 0, 0, 0, 0, 1, 1, 0
    33,  1, 1,    1,    1,     0.014, 0.0142829, 0, 0, 0, 0, 1, 1, 0
    36,  1, 1,    1,    1,   0.03528, 0.0359928, 0, 0, 0, 0, 1, 1, 0
    37,  1, 1,    1,    1,     0.056, 0.0571314, 0, 0, 0, 0, 1, 1, 0
    38,  1, 1,    1,    1,     0.056, 0.0571314, 0, 0, 0, 0, 1, 1, 0
    39,  1, 1,    1,    1,     0.056, 0.0571314, 0, 0, 0, 0, 1, 1, 0
    40,  1, 1,    1,    1,   0.03528, 0.0359928, 0, 0, 0, 0, 1, 1, 0
    42,  1, 1,    1,    1,   0.03528, 0.0359928, 0, 0, 0, 0, 1, 1, 0
    43,  1, 1,    1,    1,   0.03528, 0.0359928, 0, 0, 0, 0, 1, 1, 0
    44,  1, 1,    1,    1,   0.03528, 0.0359928, 0, 0, 0, 0, 1, 1, 0
    45,  1, 1,    1,    1,   0.03528, 0.0359928, 0, 0, 0, 0, 1, 1, 0
    46,  1, 1,    1,    1,   0.03528, 0.0359928, 0, 0, 0, 0, 1, 1, 0
    47,  1, 1,    1,    1,     0.014, 0.0142829, 0, 0, 0, 0, 1, 1, 0
    50,  1, 1,    1,    1,   0.03628,  0.037013, 0, 0, 0, 0, 1, 1, 0
    51,  1, 1,    1,    1,     0.056, 0.0571314, 0, 0, 0, 0, 1, 1, 0
    53,  1, 1,    1,    1,   0.03528, 0.0359928, 0, 0, 0, 0, 1, 1, 0
    54,  1, 1,    1,    1,     0.056, 0.0571314, 0, 0, 0, 0, 1, 1, 0
    55,  1, 1,    1,    1,     0.056, 0.0571314, 0, 0, 0, 0, 1, 1, 0
    56,  1, 1,    1,    1,     0.014, 0.0142829, 0, 0, 0, 0, 1, 1, 0
    57,  1, 1,    1,    1,     0.056, 0.0571314, 0, 0, 0, 0, 1, 1, 0
    59,  1, 1,    1,    1,     0.056, 0.0571314, 0, 0, 0, 0, 1, 1, 0
    61,  1, 1,    1,    1,     0.056, 0.0571314, 0, 0, 0, 0, 1, 1, 0
    62,  1, 1,    1,    1,     0.056, 0.0571314, 0, 0, 0, 0, 1, 1, 0
    63,  1, 1,    1,    1,     0.014, 0.0142829, 0, 0, 0, 0, 1, 1, 0
    66,  1, 1,    1,    1,     0.056, 0.0571314, 0, 0, 0, 0, 1, 1, 0
    69,  1, 1,    1,    1,     0.056, 0.0571314, 0, 0, 0, 0, 1, 1, 0
    71,  1, 1,    1,    1,   0.03528, 0.0359928, 0, 0, 0, 0, 1, 1, 0
    72,  1, 1,    1,    1,     0.056, 0.0571314, 0, 0, 0, 0, 1, 1, 0
    74,  1, 1,    1,    1,     0.056, 0.0571314, 0, 0, 0, 0, 1, 1, 0
    75,  1, 1,    1,    1,   0.03528, 0.0359928, 0, 0, 0, 0, 1, 1, 0
    76,  1, 1,    1,    1,     0.056, 0.0571314, 0, 0, 0, 0, 1, 1, 0
    77,  1, 1,    1,    1,     0.014, 0.0142829, 0, 0, 0, 0, 1, 1, 0
    78,  1, 1,    1,    1,     0.056, 0.0571314, 0, 0, 0, 0, 1, 1, 0
    79,  1, 1,    1,    1,   0.03528, 0.0359928, 0, 0, 0, 0, 1, 1, 0
    80,  1, 1,    1,    1,     0.056, 0.0571314, 0, 0, 0, 0, 1, 1, 0
    82,  1, 1,    1,    1,     0.056, 0.0571314, 0, 0, 0, 0, 1, 1, 0
    83,  1, 1,    1,    1,   0.03528, 0.0359928, 0, 0, 0, 0, 1, 1, 0
    84,  1, 1,    1,    1,     0.014, 0.0142829, 0, 0, 0, 0, 1, 1, 0
    85,  1, 1,    1,    1,   0.03528, 0.0359928, 0, 0, 0, 0, 1, 1, 0
0 / END OF LOAD DATA, BEGIN FIXED SHUNT DATA
0 / END OF FIXED SHUNT DATA, BEGIN GENERATOR DATA
     1,  1,         0,         0,        10,       -10,        1, 0,     100, 0, 1, 0, 0, 1, 1, 100,        10,         0, 1, 1, 0, 1, 0, 1, 0, 1, 0, 1
0 / END OF GENERATOR DATA, BEGIN BRANCH DATA
     1,      2, 1, 0.000892562, 0.0006198347,        0,       0,       0,       0, 0, 0, 0, 0, 1, 1, 0, 1, 1, 0, 1, 0, 1, 0, 1
     2,      3, 1, 0.001347107, 0.0009256198,        0,       0,       0,       0, 0, 0, 0, 0, 1, 1, 0, 1, 1, 0, 1, 0, 1, 0, 1
     3,      4, 1, 0.001793388, 0.001231405,        0,       0,       0,       0, 0, 0, 0, 0, 1, 1, 0, 1, 1, 0, 1, 0, 1, 0, 1
     4,      5, 1, 0.000892562, 0.0006115702,        0,       0,       0,       0, 0, 0, 0, 0, 1, 1, 0, 1, 1, 0, 1, 0, 1, 0, 1
     5,      6, 1, 0.003595041, 0.00246281,        0,       0,       0,       0, 0, 0, 0, 0, 1, 1, 0, 1, 1, 0, 1, 0, 1, 0, 1
     6,      7, 1, 0.002247934, 0.00153719,        0,       0,       0,       0, 0, 0, 0, 0, 1, 1, 0, 1, 1, 0, 1, 0, 1, 0, 1
     7,      8, 1, 0.009892562, 0.00677686,        0,       0,       0,       0, 0, 0, 0, 0, 1, 1, 0, 1, 1, 0, 1, 0, 1, 0, 1
     8,      9, 1, 0.000892562, 0.0006115702,        0,       0,       0,       0, 0, 0, 0, 0, 1, 1, 0, 1, 1, 0, 1, 0, 1, 0, 1
     9,     10, 1, 0.004942149, 0.00338843,        0,       0,       0,       0, 0, 0, 0, 0, 1, 1, 0, 1, 1, 0, 1, 0, 1, 0, 1
    10,     11, 1, 0.004495868, 0.003082645,        0,       0,       0,       0, 0, 0, 0, 0, 1, 1, 0, 1, 1, 0, 1, 0, 1, 0, 1
    11,     12, 1, 0.004495868, 0.003082645,        0,       0,       0,       0, 0, 0, 0, 0, 1, 1, 0, 1, 1, 0, 1, 0, 1, 0, 1
    12,     13, 1, 0.004942149, 0.00338843,        0,       0,       0,       0, 0, 0, 0, 0, 1, 1, 0, 1, 1, 0, 1, 0, 1, 0, 1
    13,     14, 1, 0.002247934, 0.00153719,        0,       0,       0,       0, 0, 0, 0, 0, 1, 1, 0, 1, 1, 0, 1, 0, 1, 0, 1
    14,     15, 1, 0.002694215, 0.001842975,        0,       0,       0,       0, 0, 0, 0, 0, 1, 1, 0, 1, 1, 0, 1, 0, 1, 0, 1
     2,     16, 1, 0.006016529, 0.002495868,        0,       0,       0,       0, 0, 0, 0, 0, 1, 1, 0, 1, 1, 0, 1, 0, 1, 0, 1
     3,     17, 1, 0.003760331, 0.001561983,        0,       0,       0,       0, 0, 0, 0, 0, 1, 1, 0, 1, 1, 0, 1, 0, 1, 0, 1
     5,     18, 1, 0.00677686, 0.002809917,        0,       0,       0,       0, 0, 0, 0, 0, 1, 1, 0, 1, 1, 0, 1, 0, 1, 0, 1
    18,     19, 1, 0.005264463, 0.002181818,        0,       0,       0,       0, 0, 0, 0, 0, 1, 1, 0, 1, 1, 0, 1, 0, 1, 0, 1
    19,     20, 1, 0.003760331, 0.001561983,        0,       0,       0,       0, 0, 0, 0, 0, 1, 1, 0, 1, 1, 0, 1, 0, 1, 0, 1
    20,     21, 1, 0.006768595, 0.002809917,        0,       0,       0,       0, 0, 0, 0, 0, 1, 1, 0, 1, 1, 0, 1, 0, 1, 0, 1
    21,     22, 1, 0.01279339, 0.005305785,        0,       0,       0,       0, 0, 0, 0, 0, 1, 1, 0, 1, 1, 0, 1, 0, 1, 0, 1
    19,     23, 1, 0.001504132, 0.0006198347,        0,       0,       0,       0, 0, 0, 0, 0, 1, 1, 0, 1, 1, 0, 1, 0, 1, 0, 1
     7,     24, 1, 0.007520661, 0.003123967,        0,       0,       0,       0, 0, 0, 0, 0, 1, 1, 0, 1, 1, 0, 1, 0, 1, 0, 1
     8,     25, 1, 0.003760331, 0.001561983,        0,       0,       0,       0, 0, 0, 0, 0, 1, 1, 0, 1, 1, 0, 1, 0, 1, 0, 1
    25,     26, 1, 0.003008264, 0.001247934,        0,       0,       0,       0, 0, 0, 0, 0, 1, 1, 0, 1, 1, 0, 1, 0, 1, 0, 1
    26,     27, 1, 0.004512397, 0.001867769,        0,       0,       0,       0, 0, 0, 0, 0, 1, 1, 0, 1, 1, 0, 1, 0, 1, 0, 1
    27,     28, 1, 0.002256198, 0.0009338843,        0,       0,       0,       0, 0, 0, 0, 0, 1, 1, 0, 1, 1, 0, 1, 0, 1, 0, 1
    28,     29, 1, 0.004512397, 0.001867769,        0,       0,       0,       0, 0, 0, 0, 0, 1, 1, 0, 1, 1, 0, 1, 0, 1, 0, 1
    29,     30, 1, 0.004512397, 0.001867769,        0,       0,       0,       0, 0, 0, 0, 0, 1, 1, 0, 1, 1, 0, 1, 0, 1, 0, 1
    30,     31, 1, 0.002256198, 0.0009338843,        0,       0,       0,       0, 0, 0, 0, 0, 1, 1, 0, 1, 1, 0, 1, 0, 1, 0, 1
    31,     32, 1, 0.001504132, 0.0006198347,        0,       0,       0,       0, 0, 0, 0, 0, 1, 1, 0, 1, 1, 0, 1, 0, 1, 0, 1
    32,     33, 1, 0.001504132, 0.0006198347,        0,       0,       0,       0, 0, 0, 0, 0, 1, 1, 0, 1, 1, 0, 1, 0, 1, 0, 1
    33,     34, 1, 0.006768595, 0.002809917,        0,       0,       0,       0, 0, 0, 0, 0, 1, 1, 0, 1, 1, 0, 1, 0, 1, 0, 1
    34,     35, 1, 0.005264463, 0.002181818,        0,       0,       0,       0, 0, 0, 0, 0, 1, 1, 0, 1, 1, 0, 1, 0, 1, 0, 1
    35,     36, 1, 0.001504132, 0.0006198347,        0,       0,       0,       0, 0, 0, 0, 0, 1, 1, 0, 1, 1, 0, 1, 0, 1, 0, 1
    26,     37, 1, 0.003008264, 0.001247934,        0,       0,       0,       0, 0, 0, 0, 0, 1, 1, 0, 1, 1, 0, 1, 0, 1, 0, 1
    27,     38, 1, 0.008280992, 0.003438017,        0,       0,       0,       0, 0, 0, 0, 0, 1, 1, 0, 1, 1, 0, 1, 0, 1, 0, 1
    29,     39, 1, 0.004512397, 0.001867769,        0,       0,       0,       0, 0, 0, 0, 0, 1, 1, 0, 1, 1, 0, 1, 0, 1, 0, 1
    32,     40, 1, 0.003760331, 0.001561983,        0,       0,       0,       0, 0, 0, 0, 0, 1, 1, 0, 1, 1, 0, 1, 0, 1, 0, 1
    40,     41, 1, 0.008280992, 0.003438017,        0,       0,       0,       0, 0, 0, 0, 0, 1, 1, 0, 1, 1, 0, 1, 0, 1, 0, 1
    41,     42, 1, 0.002256198, 0.0009338843,        0,       0,       0,       0, 0, 0, 0, 0, 1, 1, 0, 1, 1, 0, 1, 0, 1, 0, 1
    41,     43, 1, 0.003760331, 0.001561983,        0,       0,       0,       0, 0, 0, 0, 0, 1, 1, 0, 1, 1, 0, 1, 0, 1, 0, 1
    34,     44, 1, 0.008280992, 0.003438017,        0,       0,       0,       0, 0, 0, 0, 0, 1, 1, 0, 1, 1, 0, 1, 0, 1, 0, 1
    44,     45, 1, 0.007528926, 0.003123967,        0,       0,       0,       0, 0, 0, 0, 0, 1, 1, 0, 1, 1, 0, 1, 0, 1, 0, 1
    45,     46, 1, 0.007528926, 0.003123967,        0,       0,       0,       0, 0, 0, 0, 0, 1, 1, 0, 1, 1, 0, 1, 0, 1, 0, 1
    46,     47, 1, 0.004512397, 0.001867769,        0,       0,       0,       0, 0, 0, 0, 0, 1, 1, 0, 1, 1, 0, 1, 0, 1, 0, 1
    35,     48, 1, 0.005264463, 0.002181818,        0,       0,       0,       0, 0, 0, 0, 0, 1, 1, 0, 1, 1, 0, 1, 0, 1, 0, 1
    48,     49, 1, 0.001504132, 0.0006198347,        0,       0,       0,       0, 0, 0, 0, 0, 1, 1, 0, 1, 1, 0, 1, 0, 1, 0, 1
    49,     50, 1, 0.003008264, 0.001247934,        0,       0,       0,       0, 0, 0, 0, 0, 1, 1, 0, 1, 1, 0, 1, 0, 1, 0, 1
    50,     51, 1, 0.003760331, 0.001561983,        0,       0,       0,       0, 0, 0, 0, 0, 1, 1, 0, 1, 1, 0, 1, 0, 1, 0, 1
    48,     52, 1, 0.01128926, 0.00468595,        0,       0,       0,       0, 0, 0, 0, 0, 1, 1, 0, 1, 1, 0, 1, 0, 1, 0, 1
    52,     53, 1, 0.003760331, 0.001561983,        0,       0,       0,       0, 0, 0, 0, 0, 1, 1, 0, 1, 1, 0, 1, 0, 1, 0, 1
    53,     54, 1, 0.004512397, 0.001867769,        0,       0,       0,       0, 0, 0, 0, 0, 1, 1, 0, 1, 1, 0, 1, 0, 1, 0, 1
    52,     55, 1, 0.004512397, 0.001867769,        0,       0,       0,       0, 0, 0, 0, 0, 1, 1, 0, 1, 1, 0, 1, 0, 1, 0, 1
    49,     56, 1, 0.004512397, 0.001867769,        0,       0,       0,       0, 0, 0, 0, 0, 1, 1, 0, 1, 1, 0, 1, 0, 1, 0, 1
     9,     57, 1, 0.002256198, 0.0009338843,        0,       0,       0,       0, 0, 0, 0, 0, 1, 1, 0, 1, 1, 0, 1, 0, 1, 0, 1
    57,     58, 1, 0.006768595, 0.002809917,        0,       0,       0,       0, 0, 0, 0, 0, 1, 1, 0, 1, 1, 0, 1, 0, 1, 0, 1
    58,     59, 1, 0.001504132, 0.0006198347,        0,       0,       0,       0, 0, 0, 0, 0, 1, 1, 0, 1, 1, 0, 1, 0, 1, 0, 1
    58,     60, 1, 0.004512397, 0.001867769,        0,       0,       0,       0, 0, 0, 0, 0, 1, 1, 0, 1, 1, 0, 1, 0, 1, 0, 1
    60,     61, 1, 0.006016529, 0.002495868,        0,       0,       0,       0, 0, 0, 0, 0, 1, 1, 0, 1, 1, 0, 1, 0, 1, 0, 1
    61,     62, 1, 0.008280992, 0.003429752,        0,       0,       0,       0, 0, 0, 0, 0, 1, 1, 0, 1, 1, 0, 1, 0, 1, 0, 1
    60,     63, 1, 0.001504132, 0.0006198347,        0,       0,       0,       0, 0, 0, 0, 0, 1, 1, 0, 1, 1, 0, 1, 0, 1, 0, 1
    63,     64, 1, 0.006016529, 0.002495868,        0,       0,       0,       0, 0, 0, 0, 0, 1, 1, 0, 1, 1, 0, 1, 0, 1, 0, 1
    64,     65, 1, 0.001504132, 0.0006198347,        0,       0,       0,       0, 0, 0, 0, 0, 1, 1, 0, 1, 1, 0, 1, 0, 1, 0, 1
    65,     66, 1, 0.001504132, 0.0006198347,        0,       0,       0,       0, 0, 0, 0, 0, 1, 1, 0, 1, 1, 0, 1, 0, 1, 0, 1
    64,     67, 1, 0.003760331, 0.001561983,        0,       0,       0,       0, 0, 0, 0, 0, 1, 1, 0, 1, 1, 0, 1, 0, 1, 0, 1
    67,     68, 1, 0.007520661, 0.003123967,        0,       0,       0,       0, 0, 0, 0, 0, 1, 1, 0, 1, 1, 0, 1, 0, 1, 0, 1
    68,     69, 1, 0.009024793, 0.003743802,        0,       0,       0,       0, 0, 0, 0, 0, 1, 1, 0, 1, 1, 0, 1, 0, 1, 0, 1
    69,     70, 1, 0.003760331, 0.001561983,        0,       0,       0,       0, 0, 0, 0, 0, 1, 1, 0, 1, 1, 0, 1, 0, 1, 0, 1
    70,     71, 1, 0.004512397, 0.001867769,        0,       0,       0,       0, 0, 0, 0, 0, 1, 1, 0, 1, 1, 0, 1, 0, 1, 0, 1
    67,     72, 1, 0.001504132, 0.0006198347,        0,       0,       0,       0, 0, 0, 0, 0, 1, 1, 0, 1, 1, 0, 1, 0, 1, 0, 1
    68,     73, 1, 0.009785124, 0.004057851,        0,       0,       0,       0, 0, 0, 0, 0, 1, 1, 0, 1, 1, 0, 1, 0, 1, 0, 1
    73,     74, 1, 0.002256198, 0.0009338843,        0,       0,       0,       0, 0, 0, 0, 0, 1, 1, 0, 1, 1, 0, 1, 0, 1, 0, 1
    73,     75, 1, 0.008280992, 0.003438017,        0,       0,       0,       0, 0, 0, 0, 0, 1, 1, 0, 1, 1, 0, 1, 0, 1, 0, 1
    70,     76, 1, 0.004512397, 0.001867769,        0,       0,       0,       0, 0, 0, 0, 0, 1, 1, 0, 1, 1, 0, 1, 0, 1, 0, 1
    65,     77, 1, 0.0007520661, 0.0003057851,        0,       0,       0,       0, 0, 0, 0, 0, 1, 1, 0, 1, 1, 0, 1, 0, 1, 0, 1
    10,     78, 1, 0.005264463, 0.002181818,        0,       0,       0,       0, 0, 0, 0, 0, 1, 1, 0, 1, 1, 0, 1, 0, 1, 0, 1
    67,     79, 1, 0.004512397, 0.001867769,        0,       0,       0,       0, 0, 0, 0, 0, 1, 1, 0, 1, 1, 0, 1, 0, 1, 0, 1
    12,     80, 1, 0.006016529, 0.002495868,        0,       0,       0,       0, 0, 0, 0, 0, 1, 1, 0, 1, 1, 0, 1, 0, 1, 0, 1
    80,     81, 1, 0.003008264, 0.001247934,        0,       0,       0,       0, 0, 0, 0, 0, 1, 1, 0, 1, 1, 0, 1, 0, 1, 0, 1
    81,     82, 1, 0.0007520661, 0.0003057851,        0,       0,       0,       0, 0, 0, 0, 0, 1, 1, 0, 1, 1, 0, 1, 0, 1, 0, 1
    81,     83, 1, 0.009024793, 0.003743802,        0,       0,       0,       0, 0, 0, 0, 0, 1, 1, 0, 1, 1, 0, 1, 0, 1, 0, 1
    83,     84, 1, 0.008280992, 0.003438017,        0,       0,       0,       0, 0, 0, 0, 0, 1, 1, 0, 1, 1, 0, 1, 0, 1, 0, 1
    13,     85, 1, 0.006768595, 0.002809917,        0,       0,       0,       0, 0, 0, 0, 0, 1, 1, 0, 1, 1, 0, 1, 0, 1, 0, 1
0 / END OF BRANCH DATA, BEGIN TRANSFORMER DATA
0 / END OF TRANSFORMER DATA, BEGIN AREA DATA
0 / END OF AREA DATA, BEGIN TWO-TERMINAL DC DATA
0 / END OF TWO-TERMINAL DC DATA, BEGIN VOLTAGE SOURCE CONVERTER DATA
0 / END OF VOLTAGE SOURCE CONVERTER DATA, BEGIN IMPEDANCE CORRECTION DATA
0 / END OF IMPEDANCE CORRECTION DATA, BEGIN MULTI-TERMINAL DC DATA
0 / END OF MULTI-TERMINAL DC DATA, BEGIN MULTI-SECTION LINE DATA
0 / END OF MULTI-SECTION LINE DATA, BEGIN ZONE DATA
0 / END OF ZONE DATA, BEGIN INTER-AREA TRANSFER DATA
0 / END OF INTER-AREA TRANSFER DATA, BEGIN OWNER DATA
0 / END OF OWNER DATA, BEGIN FACTS CONTROL DEVICE DATA
0 / END OF FACTS CONTROL DEVICE DATA, BEGIN SWITCHED SHUNT DATA
0 / END OF SWITCHED SHUNT DATA, BEGIN GNE DEVICE DATA
0 / END OF GNE DEVICE DATA, BEGIN INDUCTION MACHINE DATA
0 / END OF INDUCTION MACHINE DATA
Q
